Examples/InverterModels/PVSystem2/InvControl2/MonitoredVoltage/Local_voltage_min_VLN_Node.Txt

LINE-GROUND and LINE-LINE VOLTAGES BY BUS & NODE

Bus  Node    VLN (kV)   Angle      pu     Base kV    Node-Node   VLL (kV)  Angle      pu

A .. 1       8.1972 /_    9.0    1.0288    13.800        1-2     14.201 /_   39.1    1.0291
   - 2       8.2051 /_ -110.9    1.0298    13.800        2-3     14.203 /_  -80.9    1.0292
   - 3        8.199 /_  129.1    1.0291    13.800        3-1     14.206 /_  159.1    1.0295
B .. 1       8.2324 /_   11.9    1.0333    13.800        1-2     14.223 /_   41.7    1.0307
   - 2       8.1691 /_ -108.4    1.0253    13.800        2-3     14.103 /_  -78.3    1.0219
   - 3       8.1408 /_  132.0    1.0218    13.800        3-1     14.182 /_  162.1    1.0277
